2024_89_CemigReconfigurationCases/1_AlimsCemig/NOG03/NOG03CargaMT_Dez.dss
new load.3009000508M1 bus1=BMT101961057.1.2.3.0,Phases=3,kv=13.8,kW=8.11482,pf=0.92,Vminpu=0.93,Vmaxpu=1.5,model=1,daily=A4-1,status=variable
new load.3009000510M1 bus1=BMT101961043.1.2.3.0,Phases=3,kv=13.8,kW=254.69396,pf=0.92,Vminpu=0.93,Vmaxpu=1.5,model=1,daily=A4-4,status=variable
new load.3009009784M1 bus1=BMT101960833.1.2.3.0,Phases=3,kv=13.8,kW=3.53386,pf=0.92,Vminpu=0.93,Vmaxpu=1.5,model=1,daily=A4-1,status=variable
new load.3009011242M1 bus1=BMT101958859.1.2.3.0,Phases=3,kv=13.8,kW=19.7635,pf=0.92,Vminpu=0.93,Vmaxpu=1.5,model=1,daily=A4-1,status=variable
new load.3009014557M1 bus1=BMT101961134.1.2.3.0,Phases=3,kv=13.8,kW=109.01798,pf=0.92,Vminpu=0.93,Vmaxpu=1.5,model=1,daily=A4-4,status=variable
new load.3009015914M1 bus1=BMT101960273.1.2.3.0,Phases=3,kv=13.8,kW=8.36858,pf=0.92,Vminpu=0.93,Vmaxpu=1.5,model=1,daily=A4-3,status=variable
new load.3009016029M1 bus1=BMT101959258.1.2.3.0,Phases=3,kv=13.8,kW=87.7576,pf=0.92,Vminpu=0.93,Vmaxpu=1.5,model=1,daily=A4-2,status=variable
new load.3009016113M1 bus1=BMT150341593.1.2.3.0,Phases=3,kv=13.8,kW=35.52976,pf=0.92,Vminpu=0.93,Vmaxpu=1.5,model=1,daily=A4-3,status=variable
new load.3009016295M1 bus1=BMT101961099.1.2.3.0,Phases=3,kv=13.8,kW=105.98524,pf=0.92,Vminpu=0.93,Vmaxpu=1.5,model=1,daily=A4-3,status=variable
new load.3009017464M1 bus1=BMT101960147.1.2.3.0,Phases=3,kv=13.8,kW=41.40244,pf=0.92,Vminpu=0.93,Vmaxpu=1.5,model=1,daily=A4-3,status=variable
new load.3009019821M1 bus1=BMT101961519.1.2.3.0,Phases=3,kv=13.8,kW=54.00356,pf=0.92,Vminpu=0.93,Vmaxpu=1.5,model=1,daily=A4-3,status=variable
new load.3009020153M1 bus1=BMT150341574.1.2.3.0,Phases=3,kv=13.8,kW=19.5528,pf=0.92,Vminpu=0.93,Vmaxpu=1.5,model=1,daily=A4-1,status=variable
new load.3009021501M1 bus1=BMT150341577.1.2.3.0,Phases=3,kv=13.8,kW=49.91784,pf=0.92,Vminpu=0.93,Vmaxpu=1.5,model=1,daily=A4-3,status=variable
new load.3009021611M1 bus1=BMT172955567.1.2.3.0,Phases=3,kv=13.8,kW=115.02308,pf=0.92,Vminpu=0.93,Vmaxpu=1.5,model=1,daily=A4-4,status=variable
new load.3009021907M1 bus1=BMT101960259.1.2.3.0,Phases=3,kv=13.8,kW=69.3103,pf=0.92,Vminpu=0.93,Vmaxpu=1.5,model=1,daily=A4-3,status=variable
new load.3010080180M1 bus1=BMT101959195.1.2.3.0,Phases=3,kv=13.8,kW=64.4087,pf=0.92,Vminpu=0.93,Vmaxpu=1.5,model=1,daily=A4-3,status=variable
new load.3010476392M1 bus1=BMT101961085.1.2.3.0,Phases=3,kv=13.8,kW=25.48098,pf=0.92,Vminpu=0.93,Vmaxpu=1.5,model=1,daily=A4-2,status=variable
new load.3011013285M1 bus1=BMT150341581.1.2.3.0,Phases=3,kv=13.8,kW=15.07724,pf=0.92,Vminpu=0.93,Vmaxpu=1.5,model=1,daily=A4-2,status=variable
new load.3011312058M1 bus1=BMT101961029.1.2.3.0,Phases=3,kv=13.8,kW=50.77798,pf=0.92,Vminpu=0.93,Vmaxpu=1.5,model=1,daily=A4-2,status=variable
new load.3011813091M1 bus1=BMT148098678.1.2.3.0,Phases=3,kv=13.8,kW=6.67508,pf=0.92,Vminpu=0.93,Vmaxpu=1.5,model=1,daily=A4-1,status=variable
new load.3011983478M1 bus1=BMT135322560.1.2.3.0,Phases=3,kv=13.8,kW=5.43168,pf=0.92,Vminpu=0.93,Vmaxpu=1.5,model=1,daily=A4-1,status=variable
new load.3012003026M1 bus1=BMT149197887.1.2.3.0,Phases=3,kv=13.8,kW=38.47836,pf=0.92,Vminpu=0.93,Vmaxpu=1.5,model=1,daily=A4-2,status=variable
new load.3012012308M1 bus1=BMT158565025.1.2.3.0,Phases=3,kv=13.8,kW=8.37658,pf=0.92,Vminpu=0.93,Vmaxpu=1.5,model=1,daily=A4-1,status=variable
